testData/IEEE300/testCases/IEEE300Bus_modified_noHVDC_v2_scalepercent_30.raw
0,   100.00, 30, 0, 1,  60.00     / PSS(R)E 30 RAW created by rawd30  MON, NOV 23 2020  14:23
 00/00/01                      100.0  0    0
 0
     1,'1           ', 115.0000,1,     0.000,     0.000,   1,   1,1.01566,   2.5935,   1
     2,'2           ', 115.0000,1,     0.000,     0.000,   1,   1,1.02885,   4.8872,   1
     3,'3           ', 230.0000,1,     0.000,     0.000,   1,   1,0.98245,   3.4684,   1
     4,'4           ', 345.0000,1,     0.000,     0.000,   1,   1,1.01185,   1.0146,   1
     5,'5           ', 115.0000,1,     0.000,     0.000,   1,   1,1.00346,   0.8911,   1
     6,'6           ', 115.0000,1,     0.000,     0.000,   1,   1,1.02181,   3.9040,   1
     7,'7           ', 230.0000,1,     0.000,     0.000,   1,   1,0.97939,   2.8209,   1
     8,'8           ', 115.0000,1,     0.000,     0.000,   1,   1,1.01529,  -2.3169,   1
     9,'9           ', 115.0000,1,     0.000,     0.000,   1,   1,0.99059,  -1.6199,   1
    10,'10          ', 230.0000,1,     0.000,     0.000,   1,   1,1.02049,  -3.6062,   1
    11,'11          ', 115.0000,1,     0.000,     0.000,   1,   1,1.00130,  -2.2018,   1
    12,'12          ', 230.0000,1,     0.000,     0.000,   1,   1,0.98695,   1.5087,   1
    13,'13          ', 115.0000,1,     0.000,     0.000,   1,   1,0.99323,  -6.2068,   1
    14,'14          ', 115.0000,1,     0.000,     0.000,   1,   1,0.97588, -11.6039,   1
    15,'15          ', 115.0000,1,     0.000,     0.000,   1,   1,1.00938, -16.4253,   1
    16,'16          ', 345.0000,1,     0.000,     0.000,   1,   1,1.00093,  -8.4077,   1
    17,'17          ', 115.0000,1,     0.000,     0.000,   1,   1,1.04211, -22.8872,   1
    19,'19          ', 230.0000,1,     0.000,     0.000,   1,   1,0.96802,  -4.0266,   1
    20,'20          ', 115.0000,1,     0.000,     0.000,   1,   1,1.00098,  -8.7379,   1
    21,'21          ', 230.0000,1,     0.000,     0.000,   1,   1,0.96552,  -3.3386,   1
    22,'22          ', 115.0000,1,     0.000,     0.000,   1,   1,0.98973,  -8.0246,   1
    23,'23          ', 115.0000,1,     0.000,     0.000,   1,   1,1.04723,  -0.0545,   1
    24,'24          ', 230.0000,1,     0.000,     0.000,   1,   1,0.99968,   2.6181,   1
    25,'25          ', 115.0000,1,     0.000,     0.000,   1,   1,1.01093,  -3.3296,   1
    26,'26          ', 115.0000,1,     0.000,     0.000,   1,   1,0.97832,  -7.5666,   1
    27,'27          ', 115.0000,1,     0.000,     0.000,   1,   1,0.95198, -11.8678,   1
    33,'33          ', 115.0000,1,     0.000,     0.000,   1,   1,0.98523, -20.1423,   1
    34,'34          ', 345.0000,1,     0.000,     0.000,   1,   1,1.00566, -15.0515,   1
    35,'35          ', 115.0000,1,     0.000,     0.000,   1,   1,0.96899, -40.4461,   1
    36,'36          ', 230.0000,1,     0.000,     0.000,   1,   1,0.97772, -36.0607,   1
    37,'37          ', 115.0000,1,     0.000,     0.000,   1,   1,0.98445, -18.6202,   1
    38,'38          ', 115.0000,1,     0.000,     0.000,   1,   1,0.97990, -20.8501,   1
    39,'39          ', 345.0000,1,     0.000,     0.000,   1,   1,1.02362, -12.1748,   1
    40,'40          ', 115.0000,1,     0.000,     0.000,   1,   1,0.98378, -21.1417,   1
    41,'41          ', 115.0000,1,     0.000,     0.000,   1,   1,0.99073, -17.7751,   1
    42,'42          ', 345.0000,1,     0.000,     0.000,   1,   1,1.01003, -14.4424,   1
    43,'43          ', 115.0000,1,     0.000,     0.000,   1,   1,0.95480, -27.4800,   1
    44,'44          ', 115.0000,1,     0.000,     0.000,   1,   1,0.96731, -28.8849,   1
    45,'45          ', 230.0000,1,     0.000,     0.000,   1,   1,0.98128, -25.2262,   1
    46,'46          ', 345.0000,1,     0.000,     0.000,   1,   1,0.99368, -20.6746,   1
    47,'47          ', 115.0000,1,     0.000,     0.000,   1,   1,0.93264, -36.8063,   1
    48,'48          ', 115.0000,1,     0.000,     0.000,   1,   1,0.97052, -26.3361,   1
    49,'49          ', 115.0000,1,     0.000,     0.000,   1,   1,1.03800,  -4.3292,   1
    51,'51          ', 115.0000,1,     0.000,     0.000,   1,   1,0.99014, -13.4748,   1
    52,'52          ', 115.0000,1,     0.000,     0.000,   1,   1,0.95409, -19.9742,   1
    53,'53          ', 115.0000,1,     0.000,     0.000,   1,   1,0.94865, -28.7405,   1
    54,'54          ', 115.0000,1,     0.000,     0.000,   1,   1,0.96253, -26.9979,   1
    55,'55          ', 115.0000,1,     0.000,     0.000,   1,   1,0.98249, -21.4300,   1
    57,'57          ', 115.0000,1,     0.000,     0.000,   1,   1,1.02000, -17.6893,   1
    58,'58          ', 115.0000,1,     0.000,     0.000,   1,   1,0.96934, -15.9011,   1
    59,'59          ', 115.0000,1,     0.000,     0.000,   1,   1,0.95445, -15.2133,   1
    60,'60          ', 230.0000,1,     0.000,     0.000,   1,   1,0.99329, -19.4349,   1
    61,'61          ', 115.0000,1,     0.000,     0.000,   1,   1,0.97189, -12.8585,   1
    62,'62          ', 230.0000,1,     0.000,     0.000,   1,   1,1.00243, -10.2189,   1
    63,'63          ', 115.0000,1,     0.000,     0.000,   1,   1,0.95829, -32.5751,   1
    64,'64          ', 230.0000,1,     0.000,     0.000,   1,   1,0.93509, -26.4483,   1
    69,'69          ', 115.0000,1,     0.000,     0.000,   1,   1,0.93445, -40.3339,   1
    70,'70          ', 115.0000,1,     0.000,     0.000,   1,   1,0.91169, -53.2713,   1
    71,'71          ', 115.0000,1,     0.000,     0.000,   1,   1,0.95505, -45.9696,   1
    72,'72          ', 115.0000,1,     0.000,     0.000,   1,   1,0.95457, -42.7464,   1
    73,'73          ', 115.0000,1,     0.000,     0.000,   1,   1,0.94870, -40.3242,   1
    74,'74          ', 230.0000,1,     0.000,     0.000,   1,   1,0.95971, -35.1784,   1
    76,'76          ', 115.0000,1,     0.000,     0.000,   1,   1,0.96318, -41.8296,   1
    77,'77          ', 115.0000,1,     0.000,     0.000,   1,   1,0.97452, -39.3169,   1
    78,'78          ', 115.0000,1,     0.000,     0.000,   1,   1,0.98038, -38.1144,   1
    79,'79          ', 115.0000,1,     0.000,     0.000,   1,   1,0.96437, -39.3115,   1
    80,'80          ', 115.0000,1,     0.000,     0.000,   1,   1,0.97358, -39.1149,   1
    81,'81          ', 345.0000,1,     0.000,     0.000,   1,   1,1.00360, -30.5891,   1
    84,'84          ', 115.0000,1,     0.000,     0.000,   1,   1,1.02498, -28.9795,   1
    85,'85          ', 230.0000,1,     0.000,     0.000,   1,   1,0.97667, -29.3938,   1
    86,'86          ', 230.0000,1,     0.000,     0.000,   1,   1,0.97475, -24.5839,   1
    87,'87          ', 230.0000,1,     0.000,     0.000,   1,   1,0.97108, -15.8759,   1
    88,'88          ', 230.0000,1,     0.000,     0.000,   1,   1,0.98537, -33.6139,   1
    89,'89          ', 115.0000,1,     0.000,     0.000,   1,   1,1.01334, -19.6870,   1
    90,'90          ', 115.0000,1,     0.000,     0.000,   1,   1,1.00180, -19.4185,   1
    91,'91          ', 115.0000,1,     0.000,     0.000,   1,   1,1.05199, -17.8659,   1
    92,'92          ', 115.0000,1,     0.000,     0.000,   1,   1,1.05199, -13.3228,   1
    94,'94          ', 115.0000,1,     0.000,     0.000,   1,   1,0.97605, -18.0763,   1
    97,'97          ', 115.0000,1,     0.000,     0.000,   1,   1,1.01082, -23.0576,   1
    98,'98          ', 115.0000,1,     0.000,     0.000,   1,   1,1.00000, -25.1965,   1
    99,'99          ', 115.0000,1,     0.000,     0.000,   1,   1,0.98698, -32.8710,   1
   100,'100         ', 115.0000,1,     0.000,     0.000,   1,   1,0.99960, -24.8269,   1
   102,'102         ', 115.0000,1,     0.000,     0.000,   1,   1,0.99153, -25.8869,   1
   103,'103         ', 115.0000,1,     0.000,     0.000,   1,   1,1.01913, -21.2219,   1
   104,'104         ', 115.0000,1,     0.000,     0.000,   1,   1,0.98793, -28.7823,   1
   105,'105         ', 115.0000,1,     0.000,     0.000,   1,   1,1.00819, -22.3566,   1
   107,'107         ', 115.0000,1,     0.000,     0.000,   1,   1,0.99016, -26.5404,   1
   108,'108         ', 115.0000,1,     0.000,     0.000,   1,   1,0.98999, -32.9189,   1
   109,'109         ', 115.0000,1,     0.000,     0.000,   1,   1,0.94627, -40.7285,   1
   110,'110         ', 115.0000,1,     0.000,     0.000,   1,   1,0.94712, -38.7862,   1
   112,'112         ', 115.0000,1,     0.000,     0.000,   1,   1,0.94352, -44.3541,   1
   113,'113         ', 115.0000,1,     0.000,     0.000,   1,   1,0.92640, -39.8920,   1
   114,'114         ', 115.0000,1,     0.000,     0.000,   1,   1,0.94664, -44.2285,   1
   115,'115         ', 115.0000,1,     0.000,     0.000,   2,   2,0.82003,   3.2487,   1
   116,'116         ', 115.0000,1,     0.000,     0.000,   2,   2,1.02807,  13.3938,   1
   117,'117         ', 115.0000,1,     0.000,   422.500,   2,   2,0.80014,  24.0271,   1
   118,'118         ', 115.0000,1,     0.000,     0.000,   2,   2,0.79484,  25.7762,   1
   119,'119         ', 115.0000,1,     0.000,     0.000,   2,   2,1.04329,  46.2288,   1
   120,'120         ', 115.0000,1,     0.000,    71.500,   2,   2,0.99337,  39.2661,   1
   121,'121         ', 115.0000,1,     0.000,     0.000,   2,   2,0.74363,   7.8567,   1
   122,'122         ', 115.0000,1,     0.000,     0.000,   2,   2,0.81029,  -0.0563,   1
   123,'123         ', 115.0000,1,     0.000,     0.000,   2,   2,0.93800,  -5.7520,   1
   124,'124         ', 115.0000,1,     0.000,     0.000,   2,   2,1.02326,   8.9493,   1
   125,'125         ', 115.0000,1,     0.000,     0.000,   2,   2,1.01023, -18.9492,   1
   126,'126         ', 115.0000,1,     0.000,     0.000,   2,   2,0.93683, -12.8016,   1
   127,'127         ', 230.0000,1,     0.000,     0.000,   2,   2,0.95867, -18.7045,   1
   128,'128         ', 230.0000,1,     0.000,     0.000,   2,   2,0.97379, -15.1650,   1
   129,'129         ', 230.0000,1,     0.000,     0.000,   2,   2,0.97335, -14.1120,   1
   130,'130         ', 230.0000,1,     0.000,     0.000,   2,   2,0.99526,   1.5202,   1
   131,'131         ', 230.0000,1,     0.000,     0.000,   2,   2,0.96933,   2.5213,   1
   132,'132         ', 230.0000,1,     0.000,     0.000,   2,   2,0.98453,  -1.0993,   1
   133,'133         ', 230.0000,1,     0.000,     0.000,   2,   2,0.98186, -18.1868,   1
   134,'134         ', 230.0000,1,     0.000,     0.000,   2,   2,0.99429, -17.3596,   1
   135,'135         ', 230.0000,1,     0.000,     0.000,   2,   2,0.99122, -17.3608,   1
   136,'136         ', 230.0000,1,     0.000,     0.000,   2,   2,1.03040,  -9.7886,   1
   137,'137         ', 230.0000,1,     0.000,     0.000,   2,   2,1.03399, -17.9410,   1
   138,'138         ', 230.0000,1,     0.000,     0.000,   2,   2,1.05494, -30.3135,   1
   139,'139         ', 115.0000,1,     0.000,     0.000,   2,   2,0.99641, -20.2206,   1
   140,'140         ', 230.0000,1,     0.000,     0.000,   2,   2,1.02323, -20.1425,   1
   141,'141         ', 230.0000,1,     0.000,     0.000,   2,   2,1.05099, -15.1792,   1
   142,'142         ', 230.0000,1,     0.000,     0.000,   2,   2,0.97923, -17.3704,   1
   143,'143         ', 230.0000,1,     0.000,     0.000,   2,   2,1.04347,  -7.2494,   1
   144,'144         ', 230.0000,1,     0.000,     0.000,   2,   2,1.00336,  -9.9902,   1
   145,'145         ', 230.0000,1,     0.000,     0.000,   2,   2,0.98137, -13.8245,   1
   146,'146         ', 230.0000,1,     0.000,     0.000,   2,   2,1.05279,  -8.6328,   1
   147,'147         ', 230.0000,1,     0.000,     0.000,   2,   2,1.05280,  -3.4848,   1
   148,'148         ', 230.0000,1,     0.000,     0.000,   2,   2,1.04226, -12.4486,   1
   149,'149         ', 230.0000,1,     0.000,     0.000,   2,   2,1.07349,  -5.9842,   1
   150,'150         ', 230.0000,1,     0.000,     0.000,   2,   2,0.96905,   2.9013,   1
   151,'151         ', 230.0000,1,     0.000,     0.000,   2,   2,0.98667,  -0.3420,   1
   152,'152         ', 230.0000,1,     0.000,     0.000,   2,   2,1.05350,  -0.0956,   1
   153,'153         ', 230.0000,1,     0.000,     0.000,   2,   2,1.04350,   0.4066,   1
   154,'154         ', 115.0000,1,     0.000,    44.850,   2,   2,0.95813, -16.0704,   1
   155,'155         ', 230.0000,1,     0.000,     0.000,   2,   2,0.98752,  -5.3110,   1
   156,'156         ', 115.0000,1,     0.000,     0.000,   2,   2,0.96299,  -7.5085,   1
   157,'157         ', 230.0000,1,     0.000,     0.000,   2,   2,0.82355,   2.8968,   1
   158,'158         ', 230.0000,1,     0.000,     0.000,   2,   2,0.87570,   2.6379,   1
   159,'159         ', 230.0000,1,     0.000,     0.000,   2,   2,0.80933,   9.3160,   1
   160,'160         ', 230.0000,1,     0.000,     0.000,   2,   2,0.94655,   6.0596,   1
   161,'161         ', 230.0000,1,     0.000,     0.000,   2,   2,1.02396,  -1.9448,   1
   162,'162         ', 230.0000,1,     0.000,     0.000,   2,   2,0.93259,  11.6159,   1
   163,'163         ', 230.0000,1,     0.000,     0.000,   2,   2,1.00343, -11.5814,   1
   164,'164         ', 230.0000,1,     0.000,  -275.600,   2,   2,0.93154,  -1.4017,   1
   165,'165         ', 230.0000,1,     0.000,     0.000,   2,   2,0.95855,  22.9093,   1
   166,'166         ', 230.0000,1,     0.000,  -133.900,   2,   2,0.96998,  28.3947,   1
   167,'167         ', 230.0000,1,     0.000,     0.000,   2,   2,0.92585, -17.4697,   1
   168,'168         ', 230.0000,1,     0.000,     0.000,   2,   2,0.97388, -15.2019,   1
   169,'169         ', 230.0000,1,     0.000,     0.000,   2,   2,0.95254, -17.4718,   1
   170,'170         ', 115.0000,1,     0.000,     0.000,   2,   2,0.92897,  -5.3793,   1
   171,'171         ', 115.0000,1,     0.000,     0.000,   2,   2,0.98285, -24.1600,   1
   172,'172         ', 115.0000,1,     0.000,     0.000,   2,   2,0.99560, -23.5135,   1
   173,'173         ', 115.0000,1,     0.000,    68.900,   2,   2,0.91757, -32.4794,   1
   174,'174         ', 115.0000,1,     0.000,     0.000,   2,   2,1.04861, -18.7693,   1
   175,'175         ', 115.0000,1,     0.000,     0.000,   2,   2,0.91885, -23.8450,   1
   176,'176         ', 115.0000,1,     0.000,     0.000,   2,   2,1.05219,  -8.1558,   1
   177,'177         ', 115.0000,1,     0.000,     0.000,   2,   2,1.00769, -13.5918,   1
   178,'178         ', 115.0000,1,     0.000,     0.000,   2,   2,0.88659, -22.8807,   1
   179,'179         ', 115.0000,1,     0.000,    58.500,   2,   2,0.91011, -26.6156,   1
   180,'180         ', 115.0000,1,     0.000,     0.000,   2,   2,0.94053, -17.9091,   1
   181,'181         ', 230.0000,1,     0.000,     0.000,   2,   2,1.04004, -18.6240,   1
   182,'182         ', 230.0000,1,     0.000,     0.000,   2,   2,1.02431, -21.1148,   1
   183,'183         ', 115.0000,1,     0.000,     0.000,   2,   2,0.96853,  -4.0249,   1
   184,'184         ', 230.0000,1,     0.000,     0.000,   2,   2,1.02579, -15.7650,   1
   185,'185         ', 230.0000,1,     0.000,     0.000,   2,   2,1.05219, -12.4804,   1
   186,'186         ', 230.0000,1,     0.000,     0.000,   2,   2,1.06496, -13.6585,   1
   187,'187         ', 230.0000,1,     0.000,     0.000,   2,   2,1.06495, -15.0051,   1
   188,'188         ', 230.0000,1,     0.000,     0.000,   2,   2,1.04323, -17.7488,   1
   189,'189         ',  66.0000,1,     0.000,     0.000,   3,   3,0.97697, -40.2925,   1
   190,'190         ', 345.0000,1,     0.000,  -195.000,   3,   3,1.05506, -32.7476,   1
   191,'191         ', 230.0000,1,     0.000,     0.000,   3,   3,1.04337,  17.3601,   1
   192,'192         ', 230.0000,1,     0.000,     0.000,   3,   3,0.83080, -18.1572,   1
   193,'192         ',  66.0000,1,     0.000,     0.000,   3,   3,0.96376, -41.1045,   1
   194,'194         ', 345.0000,1,     0.000,     0.000,   3,   3,1.02490, -30.8617,   1
   195,'195         ', 345.0000,1,     0.000,     0.000,   3,   3,1.01688, -33.0498,   1
   196,'196         ', 115.0000,1,     0.000,     0.000,   3,   3,0.94879, -39.0316,   1
   197,'197         ', 115.0000,1,     0.000,     0.000,   3,   3,0.97627, -37.0456,   1
   198,'198         ', 115.0000,1,     0.000,     0.000,   3,   3,1.01498, -33.0271,   1
   199,'199         ', 115.0000,1,     0.000,     0.000,   3,   3,0.92803, -40.2053,   1
   200,'200         ', 115.0000,1,     0.000,     0.000,   3,   3,0.93153, -40.0397,   1
   201,'201         ',  66.0000,1,     0.000,     0.000,   1,   1,0.93250, -43.2370,   1
   202,'202         ',  66.0000,1,     0.000,     0.000,   3,   3,0.97024, -39.2317,   1
   203,'203         ', 115.0000,1,     0.000,     0.000,   3,   3,0.99457, -35.3034,   1
   204,'204         ',  66.0000,1,     0.000,     0.000,   3,   3,0.93080, -41.4590,   1
   205,'205         ',  66.0000,1,     0.000,     0.000,   3,   3,0.95139, -41.4550,   1
   206,'206         ',  66.0000,1,     0.000,     0.000,   3,   3,0.97136, -42.7619,   1
   207,'207         ',  66.0000,1,     0.000,     0.000,   1,   1,0.98936, -42.7012,   1
   208,'208         ',  66.0000,1,     0.000,     0.000,   3,   3,0.96890, -41.1030,   1
   209,'209         ',  66.0000,1,     0.000,     0.000,   3,   3,0.98132, -39.9744,   1
   210,'210         ', 115.0000,1,     0.000,     0.000,   3,   3,0.96282, -37.7458,   1
   211,'211         ', 115.0000,1,     0.000,     0.000,   3,   3,0.98640, -36.5442,   1
   212,'212         ', 138.0000,1,     0.000,     0.000,   3,   3,0.99764, -35.3836,   1
   213,'213         ',  16.5000,1,     0.000,     0.000,   3,   3,1.00999, -21.0262,   1
   214,'214         ', 138.0000,1,     0.000,     0.000,   3,   3,0.98664, -28.7450,   1
   215,'215         ', 138.0000,1,     0.000,     0.000,   3,   3,0.97323, -32.3048,   1
   216,'216         ', 138.0000,1,     0.000,     0.000,   3,   3,0.95422, -35.3221,   1
   217,'217         ', 138.0000,1,     0.000,     0.000,   3,   3,1.00921, -34.7741,   1
   218,'218         ', 138.0000,1,     0.000,     0.000,   3,   3,0.99512, -35.3292,   1
...
 0 /End of Bus data, Begin Load data
     1,'1 ',1,   1,   1,   117.000,    63.700,     0.000,     0.000,     0.000,     0.000,   1
     2,'1 ',1,   1,   1,    72.800,    19.500,     0.000,     0.000,     0.000,     0.000,   1
     3,'1 ',1,   1,   1,    26.000,     0.000,     0.000,     0.000,     0.000,     0.000,   1
     5,'1 ',1,   1,   1,   458.900,   169.000,     0.000,     0.000,     0.000,     0.000,   1
     6,'1 ',1,   1,   1,   156.000,    53.300,     0.000,     0.000,     0.000,     0.000,   1
     8,'1 ',1,   1,   1,    75.400,    18.200,     0.000,     0.000,     0.000,     0.000,   1
     9,'1 ',1,   1,   1,   124.800,    55.900,     0.000,     0.000,     0.000,     0.000,   1
    10,'1 ',1,   1,   1,   192.400,    42.900,     0.000,     0.000,     0.000,     0.000,   1
    11,'1 ',1,   1,   1,   107.900,    27.300,     0.000,     0.000,     0.000,     0.000,   1
    13,'1 ',1,   1,   1,    75.400,    13.000,     0.000,     0.000,     0.000,     0.000,   1
    14,'1 ',1,   1,   1,   208.000,    78.000,     0.000,     0.000,     0.000,     0.000,   1
    15,'1 ',1,   1,   1,   164.710,    29.900,     0.000,     0.000,     0.000,     0.000,   1
    17,'1 ',1,   1,   1,   729.300,   286.000,     0.000,     0.000,     0.000,     0.000,   1
    20,'1 ',1,   1,   1,   773.500,   156.000,     0.000,     0.000,     0.000,     0.000,   1
    21,'1 ',1,   1,   1,   100.100,     1.300,     0.000,     0.000,     0.000,     0.000,   1
    22,'1 ',1,   1,   1,   105.300,    29.900,     0.000,     0.000,     0.000,     0.000,   1
    23,'1 ',1,   1,   1,    27.300,     9.100,     0.000,     0.000,     0.000,     0.000,   1
    25,'1 ',1,   1,   1,    58.500,    15.600,     0.000,     0.000,     0.000,     0.000,   1
    26,'1 ',1,   1,   1,    36.400,    11.700,     0.000,     0.000,     0.000,     0.000,   1
    27,'1 ',1,   1,   1,    89.700,    16.900,     0.000,     0.000,     0.000,     0.000,   1
    33,'1 ',1,   1,   1,    71.500,     7.800,     0.000,     0.000,     0.000,     0.000,   1
    37,'1 ',1,   1,   1,   110.500,    41.600,     0.000,     0.000,     0.000,     0.000,   1
    38,'1 ',1,   1,   1,   201.500,    23.400,     0.000,     0.000,     0.000,     0.000,   1
    40,'1 ',1,   1,   1,    59.800,   -27.300,     0.000,     0.000,     0.000,     0.000,   1
    41,'1 ',1,   1,   1,   111.800,     0.000,     0.000,     0.000,     0.000,     0.000,   1
    43,'1 ',1,   1,   1,    50.700,    11.700,     0.000,     0.000,     0.000,     0.000,   1
    44,'1 ',1,   1,   1,   253.500,    37.700,     0.000,     0.000,     0.000,     0.000,   1
    47,'1 ',1,   1,   1,    75.400,    15.340,     0.000,     0.000,     0.000,     0.000,   1
    48,'1 ',1,   1,   1,    53.300,    24.700,     0.000,     0.000,     0.000,     0.000,   1
    49,'1 ',1,   1,   1,   119.600,    33.800,     0.000,     0.000,     0.000,     0.000,   1
    51,'1 ',1,   1,   1,    -6.500,     6.500,     0.000,     0.000,     0.000,     0.000,   1
    52,'1 ',1,   1,   1,    79.300,    36.400,     0.000,     0.000,     0.000,     0.000,   1
    53,'1 ',1,   1,   1,    89.700,     3.900,     0.000,     0.000,     0.000,     0.000,   1
    54,'1 ',1,   1,   1,    13.000,     1.300,     0.000,     0.000,     0.000,     0.000,   1
    55,'1 ',1,   1,   1,    28.600,    13.000,     0.000,     0.000,     0.000,     0.000,   1
    57,'1 ',1,   1,   1,   127.400,    26.000,     0.000,     0.000,     0.000,     0.000,   1
    58,'1 ',1,   1,   1,    18.200,     1.300,     0.000,     0.000,     0.000,     0.000,   1
    59,'1 ',1,   1,   1,   283.400,   137.800,     0.000,     0.000,     0.000,     0.000,   1
    61,'1 ',1,   1,   1,   295.100,   143.000,     0.000,     0.000,     0.000,     0.000,   1
    63,'1 ',1,   1,   1,    91.000,    39.000,     0.000,     0.000,     0.000,     0.000,   1
    70,'1 ',1,   1,   1,    72.800,    26.000,     0.000,     0.000,     0.000,     0.000,   1
    71,'1 ',1,   1,   1,   150.800,    49.400,     0.000,     0.000,     0.000,     0.000,   1
    72,'1 ',1,   1,   1,    74.100,    24.700,     0.000,     0.000,     0.000,     0.000,   1
    73,'1 ',1,   1,   1,   291.200,    92.300,     0.000,     0.000,     0.000,     0.000,   1
    76,'1 ',1,   1,   1,   270.400,   139.100,     0.000,     0.000,     0.000,     0.000,   1
    77,'1 ',1,   1,   1,    96.200,    36.400,     0.000,     0.000,     0.000,     0.000,   1
    79,'1 ',1,   1,   1,    62.400,    18.200,     0.000,     0.000,     0.000,     0.000,   1
    80,'1 ',1,   1,   1,    36.400,     9.100,     0.000,     0.000,     0.000,     0.000,   1
    84,'1 ',1,   1,   1,    48.100,    16.900,     0.000,     0.000,     0.000,     0.000,   1
    89,'1 ',1,   1,   1,    57.460,     0.000,     0.000,     0.000,     0.000,     0.000,   1
    90,'1 ',1,   1,   1,    85.800,     0.000,     0.000,     0.000,     0.000,     0.000,   1
    91,'1 ',1,   1,   1,    22.620,     0.000,     0.000,     0.000,     0.000,     0.000,   1
    92,'1 ',1,   1,   1,    20.540,     0.000,     0.000,     0.000,     0.000,     0.000,   1
    94,'1 ',1,   1,   1,    78.390,     0.000,     0.000,     0.000,     0.000,     0.000,   1
    97,'1 ',1,   1,   1,    51.870,     0.000,     0.000,     0.000,     0.000,     0.000,   1
    98,'1 ',1,   1,   1,    86.710,     0.000,     0.000,     0.000,     0.000,     0.000,   1
    99,'1 ',1,   1,   1,   108.550,     0.000,     0.000,     0.000,     0.000,     0.000,   1
   102,'1 ',1,   1,   1,   101.140,     0.000,     0.000,     0.000,     0.000,     0.000,   1
   103,'1 ',1,   1,   1,    41.600,     0.000,     0.000,     0.000,     0.000,     0.000,   1
   104,'1 ',1,   1,   1,    11.180,     0.000,     0.000,     0.000,     0.000,     0.000,   1
   105,'1 ',1,   1,   1,    64.480,     0.000,     0.000,     0.000,     0.000,     0.000,   1
   107,'1 ',1,   1,   1,     5.980,     0.000,     0.000,     0.000,     0.000,     0.000,   1
   108,'1 ',1,   1,   1,   145.730,     0.000,     0.000,     0.000,     0.000,     0.000,   1
   109,'1 ',1,   1,   1,    39.910,     0.000,     0.000,     0.000,     0.000,     0.000,   1
   110,'1 ',1,   1,   1,    81.900,     0.000,     0.000,     0.000,     0.000,     0.000,   1
   112,'1 ',1,   1,   1,    25.480,     0.000,     0.000,     0.000,     0.000,     0.000,   1
   113,'1 ',1,   1,   1,    34.060,     0.000,     0.000,     0.000,     0.000,     0.000,   1
   114,'1 ',1,   1,   1,    23.660,     0.000,     0.000,     0.000,     0.000,     0.000,   1
   118,'1 ',1,   2,   2,    18.330,   845.000,     0.000,     0.000,     0.000,     0.000,   1
   119,'1 ',1,   2,   2,   130.390,    44.720,     0.000,     0.000,     0.000,     0.000,   1
   121,'1 ',1,   2,   2,   695.500,    71.500,     0.000,     0.000,     0.000,     0.000,   1
   122,'1 ',1,   2,   2,   297.830,    15.340,     0.000,     0.000,     0.000,     0.000,   1
   123,'1 ',1,   2,   2,   101.400,     1.820,     0.000,     0.000,     0.000,     0.000,   1
   124,'1 ',1,   2,   2,   359.320,    77.090,     0.000,     0.000,     0.000,     0.000,   1
   125,'1 ',1,   2,   2,   669.240,   107.510,     0.000,     0.000,     0.000,     0.000,   1
   126,'1 ',1,   2,   2,    75.270,     6.630,     0.000,     0.000,     0.000,     0.000,   1
   127,'1 ',1,   2,   2,   495.040,    48.100,     0.000,     0.000,     0.000,     0.000,   1
   135,'1 ',1,   2,   2,   219.960,    54.080,     0.000,     0.000,     0.000,     0.000,   1
   136,'1 ',1,   2,   2,    71.760,    23.660,     0.000,     0.000,     0.000,     0.000,   1
   137,'1 ',1,   2,   2,   355.680,   129.740,     0.000,     0.000,     0.000,     0.000,   1
   138,'1 ',1,   2,   2,  1074.710,   175.760,     0.000,     0.000,     0.000,     0.000,   1
   139,'1 ',1,   2,   2,   773.500,   108.290,     0.000,     0.000,     0.000,     0.000,   1
   140,'1 ',1,   2,   2,   504.010,   149.110,     0.000,     0.000,     0.000,     0.000,   1
   141,'1 ',1,   2,   2,   188.500,    75.400,     0.000,     0.000,     0.000,     0.000,   1
   142,'1 ',1,   2,   2,    73.450,    31.850,     0.000,     0.000,     0.000,     0.000,   1
   143,'1 ',1,   2,   2,   116.350,    46.150,     0.000,     0.000,     0.000,     0.000,   1
   145,'1 ',1,   2,   2,    31.200,    18.200,     0.000,     0.000,     0.000,     0.000,   1
   148,'1 ',1,   2,   2,    81.900,    32.500,     0.000,     0.000,     0.000,     0.000,   1
   152,'1 ',1,   2,   2,    22.100,    11.700,     0.000,     0.000,     0.000,     0.000,   1
   154,'1 ',1,   2,   2,    91.000,     6.500,     0.000,     0.000,     0.000,     0.000,   1
   155,'1 ',1,   2,   2,   260.000,    65.000,     0.000,     0.000,     0.000,     0.000,   1
   156,'1 ',1,   2,   2,    97.500,    65.000,     0.000,     0.000,     0.000,     0.000,   1
   157,'1 ',1,   2,   2,   160.550,    31.590,     0.000,     0.000,     0.000,     0.000,   1
   159,'1 ',1,   2,   2,    42.900,    21.450,     0.000,     0.000,     0.000,     0.000,   1
   161,'1 ',1,   2,   2,    45.500,    19.500,     0.000,     0.000,     0.000,     0.000,   1
   162,'1 ',1,   2,   2,   110.500,    31.200,     0.000,     0.000,     0.000,     0.000,   1
   163,'1 ',1,   2,   2,     0.000,     0.520,     0.000,     0.000,     0.000,     0.000,   1
   167,'1 ',1,   2,   2,   389.870,   124.410,     0.000,     0.000,     0.000,     0.000,   1
   170,'1 ',1,   2,   2,   626.340,   266.500,     0.000,     0.000,     0.000,     0.000,   1
   171,'1 ',1,   2,   2,   992.680,   378.430,     0.000,     0.000,     0.000,     0.000,   1
   172,'1 ',1,   2,   2,    34.450,     0.000,     0.000,     0.000,     0.000,     0.000,   1
   173,'1 ',1,   2,   2,   212.550,    55.900,     0.000,     0.000,     0.000,     0.000,   1
   175,'1 ',1,   2,   2,   228.800,   107.900,     0.000,     0.000,     0.000,     0.000,   1
   176,'1 ',1,   2,   2,     6.500,     5.200,     0.000,     0.000,     0.000,     0.000,   1
   177,'1 ',1,   2,   2,    36.400,    15.600,     0.000,     0.000,     0.000,     0.000,   1
   178,'1 ',1,   2,   2,   555.620,   225.680,     0.000,     0.000,     0.000,     0.000,   1
   179,'1 ',1,   2,   2,    96.200,    37.700,     0.000,     0.000,     0.000,     0.000,   1
   180,'1 ',1,   2,   2,    90.350,    64.090,     0.000,     0.000,     0.000,     0.000,   1
   181,'1 ',1,   2,   2,    95.420,     0.000,     0.000,     0.000,     0.000,     0.000,   1
   182,'1 ',1,   2,   2,   312.910,   115.700,     0.000,     0.000,     0.000,     0.000,   1
   183,'1 ',1,   2,   2,    52.000,     5.200,     0.000,     0.000,     0.000,     0.000,   1
   184,'1 ',1,   2,   2,   177.840,    21.580,     0.000,     0.000,     0.000,     0.000,   1
   186,'1 ',1,   2,   2,    77.740,    31.590,     0.000,     0.000,     0.000,     0.000,   1
   187,'1 ',1,   2,   2,    77.740,    31.590,     0.000,     0.000,     0.000,     0.000,   1
   188,'1 ',1,   2,   2,   237.380,    56.680,     0.000,     0.000,     0.000,     0.000,   1
   189,'1 ',1,   3,   3,     9.100,     2.600,     0.000,     0.000,     0.000,     0.000,   1
   191,'1 ',1,   3,   3,   635.700,    68.900,     0.000,     0.000,     0.000,     0.000,   1
   192,'1 ',1,   3,   3,  1040.000,    93.600,     0.000,     0.000,     0.000,     0.000,   1
   196,'1 ',1,   3,   3,    13.000,     3.900,     0.000,     0.000,     0.000,     0.000,   1
   197,'1 ',1,   3,   3,    55.900,    18.200,     0.000,     0.000,     0.000,     0.000,   1
   198,'1 ',1,   3,   3,    83.200,    27.300,     0.000,     0.000,     0.000,     0.000,   1
   199,'1 ',1,   3,   3,    45.500,    15.600,     0.000,     0.000,     0.000,     0.000,   1
   200,'1 ',1,   3,   3,    35.100,    15.600,     0.000,     0.000,     0.000,     0.000,   1
   201,'1 ',1,   1,   1,    53.300,    18.200,     0.000,     0.000,     0.000,     0.000,   1
   202,'1 ',1,   3,   3,    49.400,    16.900,     0.000,     0.000,     0.000,     0.000,   1
   203,'1 ',1,   3,   3,    54.600,    18.200,     0.000,     0.000,     0.000,     0.000,   1
   204,'1 ',1,   3,   3,    93.600,    31.200,     0.000,     0.000,     0.000,     0.000,   1
   205,'1 ',1,   3,   3,     0.000,    -6.500,     0.000,     0.000,     0.000,     0.000,   1
   206,'1 ',1,   3,   3,    15.600,     2.600,     0.000,     0.000,     0.000,     0.000,   1
   207,'1 ',1,   1,   1,   -27.300,   -18.460,     0.000,     0.000,     0.000,     0.000,   1
   208,'1 ',1,   3,   3,     9.100,     2.600,     0.000,     0.000,     0.000,     0.000,   1
   209,'1 ',1,   3,   3,    49.400,    16.900,     0.000,     0.000,     0.000,     0.000,   1
   211,'1 ',1,   3,   3,   124.800,     9.100,     0.000,     0.000,     0.000,     0.000,   1
   214,'1 ',1,   3,   3,    28.600,    20.800,     0.000,     0.000,     0.000,     0.000,   1
   215,'1 ',1,   3,   3,    61.100,    33.800,     0.000,     0.000,     0.000,     0.000,   1
   216,'1 ',1,   3,   3,   228.800,   136.500,     0.000,     0.000,     0.000,     0.000,   1
   217,'1 ',1,   3,   3,   130.000,    97.500,     0.000,     0.000,     0.000,     0.000,   1
   218,'1 ',1,   3,   3,   170.300,   124.800,     0.000,     0.000,     0.000,     0.000,   1
   220,'1 ',1,   3,   3,   370.500,   130.000,     0.000,     0.000,     0.000,     0.000,   1
   221,'1 ',1,   3,   3,   222.300,    91.000,     0.000,     0.000,     0.000,     0.000,   1
   222,'1 ',1,   3,   3,   426.400,   244.400,     0.000,     0.000,     0.000,     0.000,   1
   223,'1 ',1,   3,   3,   556.400,   301.600,     0.000,     0.000,     0.000,     0.000,   1
   224,'1 ',1,   3,   3,   224.900,   128.700,     0.000,     0.000,     0.000,     0.000,   1
   225,'1 ',1,   3,   3,   533.000,    52.000,     0.000,     0.000,     0.000,     0.000,   1
   227,'1 ',1,   3,   3,   699.400,   479.700,     0.000,     0.000,     0.000,     0.000,   1
   228,'1 ',1,   3,   3,   289.900,   192.400,     0.000,     0.000,     0.000,     0.000,   1
   229,'1 ',1,   3,   3,   124.800,    59.800,     0.000,     0.000,     0.000,     0.000,   1
   231,'1 ',1,   3,   3,   206.700,   139.100,     0.000,     0.000,     0.000,     0.000,   1
   232,'1 ',1,   3,   3,   582.400,   185.900,     0.000,     0.000,     0.000,     0.000,   1
   233,'1 ',1,   3,   3,   525.200,   275.600,     0.000,     0.000,     0.000,     0.000,   1
   234,'1 ',1,   3,   3,   743.600,   317.200,     0.000,     0.000,     0.000,     0.000,   1
   235,'1 ',1,   3,   3,   349.700,   204.100,     0.000,     0.000,     0.000,     0.000,   1
   238,'1 ',1,   3,   3,   331.500,   193.700,     0.000,     0.000,     0.000,     0.000,   1
   243,'1 ',1,   3,   3,    10.400,     3.900,     0.000,     0.000,     0.000,     0.000,   1
   245,'1 ',1,   3,   3,    79.300,    39.000,     0.000,     0.000,     0.000,     0.000,   1
   246,'1 ',1,   3,   3,   100.100,    42.900,     0.000,     0.000,     0.000,     0.000,   1
   247,'1 ',1,   3,   3,    79.300,    39.000,     0.000,     0.000,     0.000,     0.000,   1
   248,'1 ',1,   3,   3,    37.700,    18.200,     0.000,     0.000,     0.000,     0.000,   1
   249,'1 ',1,   3,   3,    37.700,    18.200,     0.000,     0.000,     0.000,     0.000,   1
   250,'1 ',1,   3,   3,   -29.900,   -22.100,     0.000,     0.000,     0.000,     0.000,   1
   281,'1 ',1,   3,   3,   -43.030,   -38.220,     0.000,     0.000,     0.000,     0.000,   1
   319,'1 ',1,   1,   1,   150.540,   -31.200,     0.000,     0.000,     0.000,     0.000,   1
   320,'1 ',1,   1,   1,     3.120,   -16.380,     0.000,     0.000,     0.000,     0.000,   1
   322,'1 ',1,   1,   1,     3.120,    -5.070,     0.000,     0.000,     0.000,     0.000,   1
   323,'1 ',1,   1,   1,   -19.370,    34.450,     0.000,     0.000,     0.000,     0.000,   1
   324,'1 ',1,   1,   1,    32.110,    -1.560,     0.000,     0.000,     0.000,     0.000,   1
   526,'1 ',1,   1,   1,   188.890,   -45.370,     0.000,     0.000,     0.000,     0.000,   1
   528,'1 ',1,   1,   1,    36.530,   -26.650,     0.000,     0.000,     0.000,     0.000,   1
   531,'1 ',1,   1,   1,    18.200,     3.250,     0.000,     0.000,     0.000,     0.000,   1
   552,'1 ',1,   1,   1,   -14.430,    -1.820,     0.000,     0.000,     0.000,     0.000,   1
   562,'1 ',1,   1,   1,    65.650,    22.620,     0.000,     0.000,     0.000,     0.000,   1
   609,'1 ',1,   1,   1,    38.480,     0.780,     0.000,     0.000,     0.000,     0.000,   1
   664,'1 ',1,   3,   3,  -147.810,    99.710,     0.000,     0.000,     0.000,     0.000,   1
  1190,'1 ',1,   1,   1,   130.403,    37.921,     0.000,     0.000,     0.000,     0.000,   1
  1200,'1 ',1,   1,   1,  -130.000,    44.421,     0.000,     0.000,     0.000,     0.000,   1
  9003,'1 ',1,   1,   9,     3.523,     1.222,     0.000,     0.000,     0.000,     0.000,   1
  9004,'1 ',1,   1,   9,     1.118,     0.364,     0.000,     0.000,     0.000,     0.000,   1
  9021,'1 ',1,   1,   9,     6.175,     2.028,     0.000,     0.000,     0.000,     0.000,   1
  9022,'1 ',1,   1,   9,     1.989,     0.689,     0.000,     0.000,     0.000,     0.000,   1
  9024,'1 ',1,   1,   9,     1.755,     0.611,     0.000,     0.000,     0.000,     0.000,   1
  9025,'1 ',1,   1,   9,     0.585,     0.208,     0.000,     0.000,     0.000,     0.000,   1
  9026,'1 ',1,   1,   9,     0.585,     0.208,     0.000,     0.000,     0.000,     0.000,   1
  9031,'1 ',1,   1,   9,     2.392,     0.832,     0.000,     0.000,     0.000,     0.000,   1
  9032,'1 ',1,   1,   9,     1.807,     0.624,     0.000,     0.000,     0.000,     0.000,   1
  9033,'1 ',1,   1,   9,     2.457,     0.845,     0.000,     0.000,     0.000,     0.000,   1
  9034,'1 ',1,   1,   9,     2.015,     0.702,     0.000,     0.000,     0.000,     0.000,   1
  9035,'1 ',1,   1,   9,     2.158,     0.754,     0.000,     0.000,     0.000,     0.000,   1
  9036,'1 ',1,   1,   9,     3.939,     1.300,     0.000,     0.000,     0.000,     0.000,   1
  9037,'1 ',1,   1,   9,     2.418,     0.832,     0.000,     0.000,     0.000,     0.000,   1
  9038,'1 ',1,   1,   9,     3.354,     1.157,     0.000,     0.000,     0.000,     0.000,   1
  9041,'1 ',1,   1,   9,     1.313,     0.455,     0.000,     0.000,     0.000,     0.000,   1
  9042,'1 ',1,   1,   9,     1.053,     0.364,     0.000,     0.000,     0.000,     0.000,   1
  9043,'1 ',1,   1,   9,     2.080,     0.676,     0.000,     0.000,     0.000,     0.000,   1
  9052,'1 ',1,   1,   9,    39.000,    29.900,     0.000,     0.000,     0.000,     0.000,   1
  9071,'1 ',1,   1,   9,     1.326,     0.455,     0.000,     0.000,     0.000,     0.000,   1
  9072,'1 ',1,   1,   9,     1.326,     0.455,     0.000,     0.000,     0.000,     0.000,   1
  9121,'1 ',1,   1,   9,     4.940,     1.625,     0.000,     0.000,     0.000,     0.000,   1
  9533,'1 ',1,   1,   9,     1.547,     0.533,     0.000,     0.000,     0.000,     0.000,   1
 0 /End of Load data, Begin Generator data
 10000,'1 ',    -6.500,   123.907,   136.298,   -10.000,1.01530,     0,   148.893,   0.00140,   0.12000,   0.00000,   0.00000,1.00000,1,  100.0,  9999.000, -9999.000,   1,1.0000
 10001,'1 ',    -6.500,    58.414,    64.256,   -20.000,1.02050,     0,    70.530,   0.00140,   0.12000,   0.00000,   0.00000,1.00000,1,  100.0,  9999.000, -9999.000,   1,1.0000
 10002,'1 ',   -13.000,   191.437,   210.581,   -20.000,1.00100,     0,   230.253,   0.00140,   0.12000,   0.00000,   0.00000,1.00000,1,  100.0,  9999.000, -9999.000,   1,1.0000
 10003,'1 ',     0.000,   104.664,   115.131,   -25.000,0.95830,     0,   125.597,   0.00140,   0.12000,   0.00000,   0.00000,1.00000,1,  100.0,  9999.000, -9999.000,   1,1.0000
 10004,'1 ',     0.000,   210.094,   231.104,    12.000,0.96320,     0,   252.113,   0.00140,   0.12000,   0.00000,   0.00000,1.00000,1,  100.0,  9999.000, -9999.000,   1,1.0000
 10005,'1 ',   491.250,   179.312,   240.000,  -240.000,1.02500,     0,   835.000,   0.00190,   0.33900,   0.00000,   0.00000,1.00000,1,  100.0,  9999.000, -9999.000,   1,1.0000
 10006,'1 ',   203.050,    66.617,    96.000,   -11.000,1.05200,     0,   270.000,   0.00160,   0.18500,   0.00000,   0.00000,1.00000,1,  100.0,  9999.000, -9999.000,   1,1.0000
 10007,'1 ',   379.900,    65.497,   153.000,  -153.000,1.05200,     0,   410.000,   0.00190,   0.22840,   0.00000,   0.00000,1.00000,1,  100.0,  9999.000, -9999.000,   1,1.0000
 10008,'1 ',    89.080,     6.760,    56.000,   -30.000,1.00000,     0,   125.000,   0.00400,   0.13400,   0.00000,   0.00000,1.00000,1,  100.0,  9999.000, -9999.000,   1,1.0000
 10009,'1 ',   153.270,    90.115,    99.127,   -24.000,0.99000,     0,   270.000,   0.00160,   0.18500,   0.00000,   0.00000,1.00000,1,  100.0,  9999.000, -9999.000,   1,1.0000
 10010,'1 ',  2528.300,  2238.282,  2462.107,  -500.000,1.04350,     0,  4052.056,   0.00100,   0.19300,   0.00000,   0.00000,1.00000,1,  100.0,  9999.000, -9999.000,   1,1.0000
 10011,'1 ',   314.400,   409.569,   450.526,   -60.000,1.02330,     0,   619.593,   0.00190,   0.22840,   0.00000,   0.00000,1.00000,1,  100.0,  9999.000, -9999.000,   1,1.0000
 10012,'1 ',     0.000,   705.521,   776.072,   -25.000,1.01030,     0,   846.624,   0.00140,   0.12000,   0.00000,   0.00000,1.00000,1,  100.0,  9999.000, -9999.000,   1,1.0000
 10013,'1 ', -1202.539,   603.160,   663.476,  -125.000,1.05500,     0,  1614.391,   0.00100,   0.19300,   0.00000,   0.00000,1.00000,1,  100.0,  9999.000, -9999.000,   1,1.0000
 10014,'1 ',   368.110,   133.675,   147.043,   -50.000,1.05100,     0,   410.000,   0.00190,   0.22840,   0.00000,   0.00000,1.00000,1,  100.0,  9999.000, -9999.000,   1,1.0000
 10015,'1 ',   911.760,   302.109,   332.320,  -100.000,1.04350,     0,  1152.610,   0.00100,   0.19300,   0.00000,   0.00000,1.00000,1,  100.0,  9999.000, -9999.000,   1,1.0000
 10016,'1 ',   110.040,    97.070,   106.777,   -15.000,1.05280,     0,   176.083,   0.00400,   0.13400,   0.00000,   0.00000,1.00000,1,  100.0,  9999.000, -9999.000,   1,1.0000
 10017,'1 ',   284.270,   -43.890,   100.000,   -50.000,1.05280,     0,   410.000,   0.00190,   0.22840,   0.00000,   0.00000,1.00000,1,  100.0,  9999.000, -9999.000,   1,1.0000
 10018,'1 ',   134.930,    67.776,    74.554,   -25.000,1.07350,     0,   270.000,   0.00160,   0.18500,   0.00000,   0.00000,1.00000,1,  100.0,  9999.000, -9999.000,   1,1.0000
 10019,'1 ',   487.320,    -2.610,   175.000,   -50.000,1.05350,     0,   835.000,   0.00190,   0.33900,   0.00000,   0.00000,1.00000,1,  100.0,  9999.000, -9999.000,   1,1.0000
 10020,'1 ',   282.960,    18.835,    90.000,   -50.000,1.04350,     0,   410.000,   0.00190,   0.22840,   0.00000,   0.00000,1.00000,1,  100.0,  9999.000, -9999.000,   1,1.0000
 10021,'1 ',     0.000,   139.719,   153.691,   -10.000,0.96300,     0,   167.662,   0.00140,   0.12000,   0.00000,   0.00000,1.00000,1,  100.0,  9999.000, -9999.000,   1,1.0000
 10022,'1 ',   268.550,   244.766,   269.243,   -40.000,0.92900,     0,   410.000,   0.00190,   0.22840,   0.00000,   0.00000,1.00000,1,  100.0,  9999.000, -9999.000,   1,1.0000
 10023,'1 ',     0.000,   459.663,   505.629,   -50.000,0.98290,     0,   551.596,   0.00140,   0.12000,   0.00000,   0.00000,1.00000,1,  100.0,  9999.000, -9999.000,   1,1.0000
 10024,'1 ',   298.680,    63.364,    90.000,   -45.000,1.05220,     0,   410.000,   0.00190,   0.22840,   0.00000,   0.00000,1.00000,1,  100.0,  9999.000, -9999.000,   1,1.0000
 10025,'1 ',   110.040,   105.999,   116.599,   -15.000,1.00770,     0,   270.000,   0.00160,   0.18500,   0.00000,   0.00000,1.00000,1,  100.0,  9999.000, -9999.000,   1,1.0000
 10026,'1 ',   262.000,    84.837,    93.320,   -50.000,1.05220,     0,   410.000,   0.00190,   0.22840,   0.00000,   0.00000,1.00000,1,  100.0,  9999.000, -9999.000,   1,1.0000
 10027,'1 ',  1572.000,   456.698,   502.368,  -100.000,1.06500,     0,  1911.000,   0.00100,   0.19300,   0.00000,   0.00000,1.00000,1,  100.0,  9999.000, -9999.000,   1,1.0000
 10028,'1 ',  1572.000,   555.588,   611.147,  -100.000,1.06500,     0,  1911.000,   0.00100,   0.19300,   0.00000,   0.00000,1.00000,1,  100.0,  9999.000, -9999.000,   1,1.0000
 10029,'1 ',   622.250,   382.538,   420.792,  -300.000,1.05510,     0,   835.000,   0.00190,   0.33900,   0.00000,   0.00000,1.00000,1,  100.0,  9999.000, -9999.000,   1,1.0000
 10030,'1 ',  2584.630,  1398.161,  1537.977, -1000.000,1.04350,     0,  3526.278,   0.00100,   0.19300,   0.00000,   0.00000,1.00000,1,  100.0,  9999.000, -9999.000,   1,1.0000
 10031,'1 ',   555.440,   180.539,   260.000,  -260.000,1.01500,     0,   835.000,   0.00190,   0.33900,   0.00000,   0.00000,1.00000,1,  100.0,  9999.000, -9999.000,   1,1.0000
 10032,'1 ',   356.320,    62.395,   150.000,  -150.000,1.01000,     0,   512.000,   0.00400,   0.20000,   0.00000,   0.00000,1.00000,1,  100.0,  9999.000, -9999.000,   1,1.0000
 10033,'1 ',   131.000,   155.968,   171.565,   -60.000,1.00800,     0,   270.000,   0.00160,   0.18500,   0.00000,   0.00000,1.00000,1,  100.0,  9999.000, -9999.000,   1,1.0000
 10034,'1 ',   589.500,   386.896,   425.586,  -320.000,1.00000,     0,   835.000,   0.00190,   0.33900,   0.00000,   0.00000,1.00000,1,  100.0,  9999.000, -9999.000,   1,1.0000
 10035,'1 ',   327.500,   217.840,   300.000,  -300.000,1.05000,     0,   410.000,   0.00190,   0.22840,   0.00000,   0.00000,1.00000,1,  100.0,  9999.000, -9999.000,   1,1.0000
 10036,'1 ',   396.930,   390.482,   429.531,  -300.000,1.00000,     0,   668.164,   0.00400,   0.20000,   0.00000,   0.00000,1.00000,1,  100.0,  9999.000, -9999.000,   1,1.0000
 10037,'1 ',   451.950,    91.509,   250.000,  -250.000,1.04000,     0,   835.000,   0.00190,   0.33900,   0.00000,   0.00000,1.00000,1,  100.0,  9999.000, -9999.000,   1,1.0000
 10038,'1 ',   393.000,   219.715,   500.000,  -500.000,1.00000,     0,   512.000,   0.00400,   0.20000,   0.00000,   0.00000,1.00000,1,  100.0,  9999.000, -9999.000,   1,1.0000
 10039,'1 ',   786.000,   383.559,   421.914,  -300.000,1.01650,     0,   911.000,   0.00100,   0.19300,   0.00000,   0.00000,1.00000,1,  100.0,  9999.000, -9999.000,   1,1.0000
 10040,'1 ',   327.500,   335.531,   369.084,  -200.000,1.01000,     0,   562.641,   0.00190,   0.22840,   0.00000,   0.00000,1.00000,1,  100.0,  9999.000, -9999.000,   1,1.0000
 10041,'1 ',   720.500,    80.754,   400.000,  -400.000,1.00000,     0,   911.000,   0.00100,   0.19300,   0.00000,   0.00000,1.00000,1,  100.0,  9999.000, -9999.000,   1,1.0000
 10042,'1 ',   752.962,    31.486,   600.000,  -600.000,1.05000,     0,   911.000,   0.00100,   0.19300,   0.00000,   0.00000,1.00000,1,  100.0,  9999.000, -9999.000,   1,1.0000
 10043,'1 ',   222.700,   125.488,   138.037,    40.000,0.99300,     0,   410.000,   0.00190,   0.22840,   0.00000,   0.00000,1.00000,1,  100.0,  9999.000, -9999.000,   1,1.0000
 10044,'1 ',   110.040,    67.365,    80.000,    40.000,1.01000,     0,   270.000,   0.00160,   0.18500,   0.00000,   0.00000,1.00000,1,  100.0,  9999.000, -9999.000,   1,1.0000
 10045,'1 ',   611.770,   222.801,   245.082,  -210.000,1.05070,     0,   835.000,   0.00190,   0.33900,   0.00000,   0.00000,1.00000,1,  100.0,  9999.000, -9999.000,   1,1.0000
 10046,'1 ',   816.130,   145.318,   280.000,  -280.000,1.05070,     0,   911.000,   0.00100,   0.19300,   0.00000,   0.00000,1.00000,1,  100.0,  9999.000, -9999.000,   1,1.0000
 10047,'1 ',  1585.100,   619.330,   681.263,  -420.000,1.03230,     0,  2042.156,   0.00100,   0.19300,   0.00000,   0.00000,1.00000,1,  100.0,  9999.000, -9999.000,   1,1.0000
 10048,'1 ',   306.540,    78.522,   100.000,  -100.000,1.01450,     0,   410.000,   0.00190,   0.22840,   0.00000,   0.00000,1.00000,1,  100.0,  9999.000, -9999.000,   1,1.0000
 10049,'1 ',   487.320,   250.557,   275.613,  -224.000,1.05070,     0,   835.000,   0.00190,   0.33900,   0.00000,   0.00000,1.00000,1,  100.0,  9999.000, -9999.000,   1,1.0000
 10050,'1 ',   432.300,   507.198,   557.917,     0.000,1.05070,     0,   835.000,   0.00190,   0.33900,   0.00000,   0.00000,1.00000,1,  100.0,  9999.000, -9999.000,   1,1.0000
 10051,'1 ',   242.350,    21.976,   120.000,     0.000,1.05070,     0,   410.000,   0.00190,   0.22840,   0.00000,   0.00000,1.00000,1,  100.0,  9999.000, -9999.000,   1,1.0000
 10052,'1 ',   537.100,   145.120,   224.000,  -224.000,1.02900,     0,   835.000,   0.00190,   0.33900,   0.00000,   0.00000,1.00000,1,  100.0,  9999.000, -9999.000,   1,1.0000
 10053,'1 ',   655.000,   283.371,   311.708,  -200.000,1.05000,     0,   835.000,   0.00190,   0.33900,   0.00000,   0.00000,1.00000,1,  100.0,  9999.000, -9999.000,   1,1.0000
 10054,'1 ',    48.470,    67.003,    73.703,     0.000,1.01450,     0,   125.000,   0.00400,   0.13400,   0.00000,   0.00000,1.00000,1,  100.0,  9999.000, -9999.000,   1,1.0000
 10055,'1 ',   740.650,   138.750,   152.625,     0.000,1.05070,     0,   835.000,   0.00190,   0.33900,   0.00000,   0.00000,1.00000,1,  100.0,  9999.000, -9999.000,   1,1.0000
 10056,'1 ',    58.950,    44.070,    48.477,     0.000,0.99670,     0,   125.000,   0.00400,   0.13400,   0.00000,   0.00000,1.00000,1,  100.0,  9999.000, -9999.000,   1,1.0000
 10057,'1 ',   216.150,   121.861,   134.047,   -90.000,1.02120,     0,   410.000,   0.00190,   0.22840,   0.00000,   0.00000,1.00000,1,  100.0,  9999.000, -9999.000,   1,1.0000
 10058,'1 ',   524.000,   214.830,   236.313,  -150.000,1.01450,     0,   835.000,   0.00190,   0.33900,   0.00000,   0.00000,1.00000,1,  100.0,  9999.000, -9999.000,   1,1.0000
 10059,'1 ',   524.000,   212.539,   233.793,     0.000,1.00170,     0,   835.000,   0.00190,   0.33900,   0.00000,   0.00000,1.00000,1,  100.0,  9999.000, -9999.000,   1,1.0000
 10060,'1 ',   151.960,   126.908,   139.599,     0.000,0.98930,     0,   270.000,   0.00160,   0.18500,   0.00000,   0.00000,1.00000,1,  100.0,  9999.000, -9999.000,   1,1.0000
 10061,'1 ',  1692.520,   572.959,   600.000,  -100.000,1.05070,     0,  2144.244,   0.00100,   0.19300,   0.00000,   0.00000,1.00000,1,  100.0,  9999.000, -9999.000,   1,1.0000
 10062,'1 ',   917.000,   408.868,   449.755,  -125.000,1.05070,     0,  1204.828,   0.00100,   0.19300,   0.00000,   0.00000,1.00000,1,  100.0,  9999.000, -9999.000,   1,1.0000
 10063,'1 ',   724.430,   334.292,   367.721,  -200.000,1.01450,     0,   911.000,   0.00100,   0.19300,   0.00000,   0.00000,1.00000,1,  100.0,  9999.000, -9999.000,   1,1.0000
 10064,'1 ',    -5.460,     8.767,     9.644,    -2.000,0.99450,     0,    25.000,   0.00140,   0.12000,   0.00000,   0.00000,1.00000,1,  100.0,  9999.000, -9999.000,   1,1.0000
 10065,'1 ',   -46.553,    26.409,    29.050,   -17.350,1.00000,     0,   125.000,   0.00400,   0.13400,   0.00000,   0.00000,1.00000,1,  100.0,  9999.000, -9999.000,   1,1.0000
 10066,'1 ',   -34.424,    21.479,    23.627,   -12.800,1.00000,     0,   125.000,   0.00400,   0.13400,   0.00000,   0.00000,1.00000,1,  100.0,  9999.000, -9999.000,   1,1.0000
 10067,'1 ',    65.500,    42.585,    46.843,   -38.000,1.00000,     0,   125.000,   0.00400,   0.13400,   0.00000,   0.00000,1.00000,1,  100.0,  9999.000, -9999.000,   1,1.0000
 10068,'1 ',    10.480,     7.899,     8.689,    -6.000,1.00000,     0,    25.000,   0.00140,   0.12000,   0.00000,   0.00000,1.00000,1,  100.0,  9999.000, -9999.000,   1,1.0000
 0 /End of Generator data, Begin Branch data
     1,      5,'1 ',   0.00100,   0.00600,   0.00000,    0.00,    0.00,    0.00,  0.00000,  0.00000,  0.00000,  0.00000,1,   0.00,   1,1.0000
     2,      6,'1 ',   0.00100,   0.00900,   0.00000,    0.00,    0.00,    0.00,  0.00000,  0.00000,  0.00000,  0.00000,1,   0.00,   1,1.0000
     2,      8,'1 ',   0.00600,   0.02700,   0.05400,    0.00,    0.00,    0.00,  0.00000,  0.00000,  0.00000,  0.00000,1,   0.00,   1,1.0000
     3,      7,'1 ',   0.00000,   0.00300,   0.00000,    0.00,    0.00,    0.00,  0.00000,  0.00000,  0.00000,  0.00000,1,   0.00,   1,1.0000
     3,     19,'1 ',   0.00800,   0.06900,   0.13900,    0.00,    0.00,    0.00,  0.00000,  0.00000,  0.00000,  0.00000,1,   0.00,   1,1.0000
     3,    150,'1 ',   0.00100,   0.00700,   0.00000,    0.00,    0.00,    0.00,  0.00000,  0.00000,  0.00000,  0.00000,1,   0.00,   1,1.0000
     4,     16,'1 ',   0.00200,   0.01900,   1.12700,    0.00,    0.00,    0.00,  0.00000,  0.00000,  0.00000,  0.00000,1,   0.00,   1,1.0000
     5,      9,'1 ',   0.00600,   0.02900,   0.01800,    0.00,    0.00,    0.00,  0.00000,  0.00000,  0.00000,  0.00000,1,   0.00,   1,1.0000
     7,     12,'1 ',   0.00100,   0.00900,   0.07000,    0.00,    0.00,    0.00,  0.00000,  0.00000,  0.00000,  0.00000,1,   0.00,   1,1.0000
     7,    131,'1 ',   0.00100,   0.00700,   0.01400,    0.00,    0.00,    0.00,  0.00000,  0.00000,  0.00000,  0.00000,1,   0.00,   1,1.0000
     8,     11,'1 ',   0.01300,   0.05950,   0.03300,    0.00,    0.00,    0.00,  0.00000,  0.00000,  0.00000,  0.00000,1,   0.00,   1,1.0000
     8,     14,'1 ',   0.01300,   0.04200,   0.08100,    0.00,    0.00,    0.00,  0.00000,  0.00000,  0.00000,  0.00000,1,   0.00,   1,1.0000
     9,     11,'1 ',   0.00600,   0.02700,   0.01300,    0.00,    0.00,    0.00,  0.00000,  0.00000,  0.00000,  0.00000,1,   0.00,   1,1.0000
    11,     13,'1 ',   0.00800,   0.03400,   0.01800,    0.00,    0.00,    0.00,  0.00000,  0.00000,  0.00000,  0.00000,1,   0.00,   1,1.0000
    12,     21,'1 ',   0.00200,   0.01500,   0.11800,    0.00,    0.00,    0.00,  0.00000,  0.00000,  0.00000,  0.00000,1,   0.00,   1,1.0000
    13,     20,'1 ',   0.00600,   0.03400,   0.01600,    0.00,    0.00,    0.00,  0.00000,  0.00000,  0.00000,  0.00000,1,   0.00,   1,1.0000
    14,     15,'1 ',   0.01400,   0.04200,   0.09700,    0.00,    0.00,    0.00,  0.00000,  0.00000,  0.00000,  0.00000,1,   0.00,   1,1.0000
    15,     37,'1 ',   0.06500,   0.24800,   0.12100,    0.00,    0.00,    0.00,  0.00000,  0.00000,  0.00000,  0.00000,1,   0.00,   1,1.0000
    15,     89,'1 ',   0.09900,   0.24800,   0.03500,    0.00,    0.00,    0.00,  0.00000,  0.00000,  0.00000,  0.00000,1,   0.00,   1,1.0000
    15,     90,'1 ',   0.09600,   0.36300,   0.04800,    0.00,    0.00,    0.00,  0.00000,  0.00000,  0.00000,  0.00000,1,   0.00,   1,1.0000
    16,     42,'1 ',   0.00200,   0.02200,   1.28000,    0.00,    0.00,    0.00,  0.00000,  0.00000,  0.00000,  0.00000,1,   0.00,   1,1.0000
    19,     21,'1 ',   0.00200,   0.01800,   0.03600,    0.00,    0.00,    0.00,  0.00000,  0.00000,  0.00000,  0.00000,1,   0.00,   1,1.0000
    19,     87,'1 ',   0.01300,   0.08000,   0.15100,    0.00,    0.00,    0.00,  0.00000,  0.00000,  0.00000,  0.00000,1,   0.00,   1,1.0000
    20,     22,'1 ',   0.01600,   0.03300,   0.01500,    0.00,    0.00,    0.00,  0.00000,  0.00000,  0.00000,  0.00000,1,   0.00,   1,1.0000
    20,     27,'1 ',   0.06900,   0.18600,   0.09800,    0.00,    0.00,    0.00,  0.00000,  0.00000,  0.00000,  0.00000,1,   0.00,   1,1.0000
    21,     24,'1 ',   0.00400,   0.03400,   0.28000,    0.00,    0.00,    0.00,  0.00000,  0.00000,  0.00000,  0.00000,1,   0.00,   1,1.0000
    22,     23,'1 ',   0.05200,   0.11100,   0.05000,    0.00,    0.00,    0.00,  0.00000,  0.00000,  0.00000,  0.00000,1,   0.00,   1,1.0000
    23,     25,'1 ',   0.01900,   0.03900,   0.01800,    0.00,    0.00,    0.00,  0.00000,  0.00000,  0.00000,  0.00000,1,   0.00,   1,1.0000
    24,    319,'1 ',   0.00700,   0.06800,   0.13400,    0.00,    0.00,    0.00,  0.00000,  0.00000,  0.00000,  0.00000,1,   0.00,   1,1.0000
    25,     26,'1 ',   0.03600,   0.07100,   0.03400,    0.00,    0.00,    0.00,  0.00000,  0.00000,  0.00000,  0.00000,1,   0.00,   1,1.0000
    26,     27,'1 ',   0.04500,   0.12000,   0.06500,    0.00,    0.00,    0.00,  0.00000,  0.00000,  0.00000,  0.00000,1,   0.00,   1,1.0000
    26,    320,'1 ',   0.04300,   0.13000,   0.01400,    0.00,    0.00,    0.00,  0.00000,  0.00000,  0.00000,  0.00000,1,   0.00,   1,1.0000
    33,     34,'1 ',   0.00000,   0.06300,   0.00000,    0.00,    0.00,    0.00,  0.00000,  0.00000,  0.00000,  0.00000,1,   0.00,   1,1.0000
    33,     38,'1 ',   0.00250,   0.01200,   0.01300,    0.00,    0.00,    0.00,  0.00000,  0.00000,  0.00000,  0.00000,1,   0.00,   1,1.0000
    33,     40,'1 ',   0.00600,   0.02900,   0.02000,    0.00,    0.00,    0.00,  0.00000,  0.00000,  0.00000,  0.00000,1,   0.00,   1,1.0000
    33,     41,'1 ',   0.00700,   0.04300,   0.02600,    0.00,    0.00,    0.00,  0.00000,  0.00000,  0.00000,  0.00000,1,   0.00,   1,1.0000
    34,     42,'1 ',   0.00100,   0.00800,   0.04200,    0.00,    0.00,    0.00,  0.00000,  0.00000,  0.00000,  0.00000,1,   0.00,   1,1.0000
    35,     72,'1 ',   0.01200,   0.06000,   0.00800,    0.00,    0.00,    0.00,  0.00000,  0.00000,  0.00000,  0.00000,1,   0.00,   1,1.0000
    35,     76,'1 ',   0.00600,   0.01400,   0.00200,    0.00,    0.00,    0.00,  0.00000,  0.00000,  0.00000,  0.00000,1,   0.00,   1,1.0000
    35,     77,'1 ',   0.01000,   0.02900,   0.00300,    0.00,    0.00,    0.00,  0.00000,  0.00000,  0.00000,  0.00000,1,   0.00,   1,1.0000
    36,     88,'1 ',   0.00400,   0.02700,   0.04300,    0.00,    0.00,    0.00,  0.00000,  0.00000,  0.00000,  0.00000,1,   0.00,   1,1.0000
    37,     38,'1 ',   0.00800,   0.04700,   0.00800,    0.00,    0.00,    0.00,  0.00000,  0.00000,  0.00000,  0.00000,1,   0.00,   1,1.0000
    37,     40,'1 ',   0.02200,   0.06400,   0.00700,    0.00,    0.00,    0.00,  0.00000,  0.00000,  0.00000,  0.00000,1,   0.00,   1,1.0000
    37,     41,'1 ',   0.01000,   0.03600,   0.02000,    0.00,    0.00,    0.00,  0.00000,  0.00000,  0.00000,  0.00000,1,   0.00,   1,1.0000
    37,     49,'1 ',   0.01700,   0.08100,   0.04800,    0.00,    0.00,    0.00,  0.00000,  0.00000,  0.00000,  0.00000,1,   0.00,   1,1.0000
    37,     89,'1 ',   0.10200,   0.25400,   0.03300,    0.00,    0.00,    0.00,  0.00000,  0.00000,  0.00000,  0.00000,1,   0.00,   1,1.0000
    37,     90,'1 ',   0.04700,   0.12700,   0.01600,    0.00,    0.00,    0.00,  0.00000,  0.00000,  0.00000,  0.00000,1,   0.00,   1,1.0000
    38,     41,'1 ',   0.00800,   0.03700,   0.02000,    0.00,    0.00,    0.00,  0.00000,  0.00000,  0.00000,  0.00000,1,   0.00,   1,1.0000
    38,     43,'1 ',   0.03200,   0.08700,   0.04000,    0.00,    0.00,    0.00,  0.00000,  0.00000,  0.00000,  0.00000,1,   0.00,   1,1.0000
    39,     42,'1 ',   0.00060,   0.00640,   0.40400,    0.00,    0.00,    0.00,  0.00000,  0.00000,  0.00000,  0.00000,1,   0.00,   1,1.0000
    40,     48,'1 ',   0.02600,   0.15400,   0.02200,    0.00,    0.00,    0.00,  0.00000,  0.00000,  0.00000,  0.00000,1,   0.00,   1,1.0000
    41,     42,'1 ',   0.00000,   0.02900,   0.00000,    0.00,    0.00,    0.00,  0.00000,  0.00000,  0.00000,  0.00000,1,   0.00,   1,1.0000
    41,     49,'1 ',   0.06500,   0.19100,   0.02000,    0.00,    0.00,    0.00,  0.00000,  0.00000,  0.00000,  0.00000,1,   0.00,   1,1.0000
    41,     51,'1 ',   0.03100,   0.08900,   0.03600,    0.00,    0.00,    0.00,  0.00000,  0.00000,  0.00000,  0.00000,1,   0.00,   1,1.0000
    42,     46,'1 ',   0.00200,   0.01400,   0.80600,    0.00,    0.00,    0.00,  0.00000,  0.00000,  0.00000,  0.00000,1,   0.00,   1,1.0000
    43,     44,'1 ',   0.02600,   0.07200,   0.03500,    0.00,    0.00,    0.00,  0.00000,  0.00000,  0.00000,  0.00000,1,   0.00,   1,1.0000
    43,     48,'1 ',   0.09500,   0.26200,   0.03200,    0.00,    0.00,    0.00,  0.00000,  0.00000,  0.00000,  0.00000,1,   0.00,   1,1.0000
    43,     53,'1 ',   0.01300,   0.03900,   0.01600,    0.00,    0.00,    0.00,  0.00000,  0.00000,  0.00000,  0.00000,1,   0.00,   1,1.0000
    44,     47,'1 ',   0.02700,   0.08400,   0.03900,    0.00,    0.00,    0.00,  0.00000,  0.00000,  0.00000,  0.00000,1,   0.00,   1,1.0000
    44,     54,'1 ',   0.02800,   0.08400,   0.03700,    0.00,    0.00,    0.00,  0.00000,  0.00000,  0.00000,  0.00000,1,   0.00,   1,1.0000
    45,     60,'1 ',   0.00700,   0.04100,   0.31200,    0.00,    0.00,    0.00,  0.00000,  0.00000,  0.00000,  0.00000,1,   0.00,   1,1.0000
    45,     74,'1 ',   0.00900,   0.05400,   0.41100,    0.00,    0.00,    0.00,  0.00000,  0.00000,  0.00000,  0.00000,1,   0.00,   1,1.0000
    46,     81,'1 ',   0.00500,   0.04200,   0.69000,    0.00,    0.00,    0.00,  0.00000,  0.00000,  0.00000,  0.00000,1,   0.00,   1,1.0000
    47,     73,'1 ',   0.05200,   0.14500,   0.07300,    0.00,    0.00,    0.00,  0.00000,  0.00000,  0.00000,  0.00000,1,   0.00,   1,1.0000
    47,    113,'1 ',   0.04300,   0.11800,   0.01300,    0.00,    0.00,    0.00,  0.00000,  0.00000,  0.00000,  0.00000,1,   0.00,   1,1.0000
    48,    107,'1 ',   0.02500,   0.06200,   0.00700,    0.00,    0.00,    0.00,  0.00000,  0.00000,  0.00000,  0.00000,1,   0.00,   1,1.0000
    49,     51,'1 ',   0.03100,   0.09400,   0.04300,    0.00,    0.00,    0.00,  0.00000,  0.00000,  0.00000,  0.00000,1,   0.00,   1,1.0000
    51,     52,'1 ',   0.03700,   0.10900,   0.04900,    0.00,    0.00,    0.00,  0.00000,  0.00000,  0.00000,  0.00000,1,   0.00,   1,1.0000
    52,     55,'1 ',   0.02700,   0.08000,   0.03600,    0.00,    0.00,    0.00,  0.00000,  0.00000,  0.00000,  0.00000,1,   0.00,   1,1.0000
    53,     54,'1 ',   0.02500,   0.07300,   0.03500,    0.00,    0.00,    0.00,  0.00000,  0.00000,  0.00000,  0.00000,1,   0.00,   1,1.0000
    54,     55,'1 ',   0.03500,   0.10300,   0.04700,    0.00,    0.00,    0.00,  0.00000,  0.00000,  0.00000,  0.00000,1,   0.00,   1,1.0000
    55,     57,'1 ',   0.06500,   0.16900,   0.08200,    0.00,    0.00,    0.00,  0.00000,  0.00000,  0.00000,  0.00000,1,   0.00,   1,1.0000
    57,     58,'1 ',   0.04600,   0.08000,   0.03600,    0.00,    0.00,    0.00,  0.00000,  0.00000,  0.00000,  0.00000,1,   0.00,   1,1.0000
    57,     63,'1 ',   0.15900,   0.53700,   0.07100,    0.00,    0.00,    0.00,  0.00000,  0.00000,  0.00000,  0.00000,1,   0.00,   1,1.0000
    58,     59,'1 ',   0.00900,   0.02600,   0.00500,    0.00,    0.00,    0.00,  0.00000,  0.00000,  0.00000,  0.00000,1,   0.00,   1,1.0000
    59,     61,'1 ',   0.00200,   0.01300,   0.01500,    0.00,    0.00,    0.00,  0.00000,  0.00000,  0.00000,  0.00000,1,   0.00,   1,1.0000
    60,     62,'1 ',   0.00900,   0.06500,   0.48500,    0.00,    0.00,    0.00,  0.00000,  0.00000,  0.00000,  0.00000,1,   0.00,   1,1.0000
    62,     64,'1 ',   0.01600,   0.10500,   0.20300,    0.00,    0.00,    0.00,  0.00000,  0.00000,  0.00000,  0.00000,1,   0.00,   1,1.0000
...